# File generated by Flopy version 3.3.4 on 09/27/2022 at 15:53:08.
BEGIN options
  COMPLEXITY  complex
END options

BEGIN linear
  LINEAR_ACCELERATION  bicgstab
END linear

