# File generated by Flopy version 3.3.4 on 11/03/2022 at 23:23:12.
BEGIN options
  HEAD  FILEOUT  TRANSIENT.hds
END options

BEGIN period  1
  SAVE  HEAD  FREQUENCY  10
END period  1

