# File generated by Flopy version 3.3.4 on 10/28/2022 at 12:45:43.
BEGIN options
  MEMORY_PRINT_OPTION  all
END options

BEGIN timing
  TDIS6  TRANSIENT.tdis
END timing

BEGIN models
  gwf6  TRANSIENT.nam  TRANSIENT
END models

BEGIN exchanges
END exchanges

BEGIN solutiongroup  1
  ims6  TRANSIENT.ims  TRANSIENT
END solutiongroup  1

