# File generated by Flopy version 3.3.4 on 10/28/2022 at 12:45:54.
BEGIN options
  HEAD  FILEOUT  TRANSIENT.hds
END options

BEGIN period  1
  SAVE  HEAD  FREQUENCY  10
END period  1

