# File generated by Flopy version 3.3.4 on 09/30/2022 at 10:26:43.
BEGIN options
  COMPLEXITY  complex
END options

BEGIN nonlinear
  UNDER_RELAXATION  simple
  UNDER_RELAXATION_GAMMA       0.20000000
  BACKTRACKING_NUMBER  10
  BACKTRACKING_TOLERANCE   10000.00000000
  BACKTRACKING_REDUCTION_FACTOR       0.20000000
  BACKTRACKING_RESIDUAL_LIMIT     100.00000000
END nonlinear

BEGIN linear
  LINEAR_ACCELERATION  bicgstab
END linear

