# File generated by Flopy version 3.3.5 on 10/26/2023 at 08:01:22.
BEGIN options
  HEAD  FILEOUT  TRANSIENT.hds
END options

BEGIN period  1
  SAVE  HEAD  FREQUENCY  10
END period  1

