# File generated by Flopy version 3.3.5 on 10/26/2023 at 08:00:57.
BEGIN options
  COMPLEXITY  complex
END options

BEGIN nonlinear
  UNDER_RELAXATION  simple
  UNDER_RELAXATION_GAMMA       0.10000000
  BACKTRACKING_NUMBER  5
  BACKTRACKING_TOLERANCE  100000.00000000
  BACKTRACKING_REDUCTION_FACTOR       0.30000000
  BACKTRACKING_RESIDUAL_LIMIT     150.00000000
END nonlinear

BEGIN linear
  LINEAR_ACCELERATION  bicgstab
END linear

