# File generated by Flopy version 3.3.4 on 10/31/2022 at 11:56:45.
BEGIN options
END options

BEGIN dimensions
  MAXBOUND  98324
END dimensions

BEGIN period  1
  1 4 51       0.00000000
  1 4 52       0.00000000
  1 4 53       0.00000000
  1 4 54       0.00000000
  1 4 55       0.00000000
  1 4 56       0.00000000
  1 4 57       0.00000000
  1 4 58       0.00000000
  1 4 59       0.00000000
  1 4 60       0.00000000
  1 4 61       0.00000000
  1 5 51       0.00000000
  1 5 52       0.00000000
  1 5 53       0.00000000
  1 5 54       0.00000000
  1 5 55       0.00000000
  1 5 56       0.00000000
  1 5 57       0.00000000
  1 5 58       0.00000000
  1 5 59       0.00000000
  1 5 60       0.00000000
  1 5 61       0.00000000
  1 5 62       0.00000000
  1 5 63       0.00000000
  1 5 64       0.00000000
  1 5 65       0.00000000
  1 5 66       0.00000000
  1 6 51       0.00000000
  1 6 52       0.00000000
  1 6 53       0.00000000
  1 6 54       0.00000000
  1 6 55       0.00000000
  1 6 56       0.00000000
  1 6 57       0.00000000
  1 6 58       0.00000000
  1 6 59       0.00000000
  1 6 60       0.00000000
  1 6 61       0.00000000
  1 6 62       0.00000000
  1 6 63       0.00000000
  1 6 64       0.00000000
  1 6 65       0.00000000
  1 6 66       0.00000000
  1 7 51       0.00000000
  1 7 52       0.00000000
  1 7 53       0.00000000
  1 7 54       0.00000000
  1 7 55       0.00000000
  1 7 56       0.00000000
  1 7 57       0.00000000
  1 7 58       0.00000000
  1 7 59       0.00000000
  1 7 60       0.00000000
  1 7 61       0.00000000
  1 7 62       0.00000000
  1 7 63       0.00000000
  1 7 64       0.00000000
  1 7 65       0.00000000
  1 7 66       0.00000000
  1 8 51       0.00000000
  1 8 52       0.00000000
  1 8 53       0.00000000
  1 8 54       0.00000000
  1 8 55       0.00000000
  1 8 56       0.00000000
  1 8 57       0.00000000
  1 8 58       0.00000000
  1 8 59       0.00000000
  1 8 60       0.00000000
  1 8 61       0.00000000
  1 8 62       0.00000000
  1 8 63       0.00000000
  1 8 64       0.00000000
  1 8 65       0.00000000
  1 8 66       0.00000000
  1 9 51       0.00000000
  1 9 52       0.00000000
  1 9 53       0.00000000
  1 9 54       0.00000000
  1 9 55       0.00000000
  1 9 56       0.00000000
  1 9 57       0.00000000
  1 9 58       0.00000000
  1 9 59       0.00000000
  1 9 60       0.00000000
  1 9 61       0.00000000
  1 9 62       0.00000000
  1 9 63       0.00000000
  1 9 64       0.00000000
  1 9 65       0.00000000
  1 9 66       0.00000000
  1 9 67       0.00000000
  1 9 68       0.00000000
  1 9 69       0.00000000
  1 9 70       0.00000000
  1 9 71       0.00000000
  1 9 72       0.00000000
  1 9 73       0.00000000
  1 9 74       0.00000000
  1 9 75       0.00000000
  1 9 76       0.00000000
  1 10 51       0.00000000
  1 10 52       0.00000000
  1 10 53       0.00000000
  1 10 54       0.00000000
  1 10 55       0.00000000
  1 10 56       0.00000000
  1 10 57       0.00000000
  1 10 58       0.00000000
  1 10 59       0.00000000
  1 10 60       0.00000000
  1 10 61       0.00000000
  1 10 62       0.00000000
  1 10 63       0.00000000
  1 10 64       0.00000000
  1 10 65       0.00000000
  1 10 66       0.00000000
  1 10 67       0.00000000
  1 10 68       0.00000000
  1 10 69       0.00000000
  1 10 70       0.00000000
  1 10 71       0.00000000
  1 10 72       0.00000000
  1 10 73       0.00000000
  1 10 74       0.00000000
  1 10 75       0.00000000
  1 10 76       0.00000000
  1 10 77       0.00000000
  1 10 78       0.00000000
  1 10 79       0.00000000
  1 10 80       0.00000000
  1 10 81       0.00000000
  1 10 82       0.00000000
  1 10 83       0.00000000
  1 10 84       0.00000000
  1 10 85       0.00000000
  1 10 86       0.00000000
  1 10 87       0.00000000
  1 10 88       0.00000000
  1 11 51       0.00000000
  1 11 52       0.00000000
  1 11 53       0.00000000
  1 11 54       0.00000000
  1 11 55       0.00000000
  1 11 56       0.00000000
  1 11 57       0.00000000
  1 11 58       0.00000000
  1 11 59       0.00000000
  1 11 60       0.00000000
  1 11 61       0.00000000
  1 11 62       0.00000000
  1 11 63       0.00000000
  1 11 64       0.00000000
  1 11 65       0.00000000
  1 11 66       0.00000000
  1 11 67       0.00000000
  1 11 68       0.00000000
  1 11 69       0.00000000
  1 11 70       0.00000000
  1 11 71       0.00000000
  1 11 72       0.00000000
  1 11 73       0.00000000
  1 11 74       0.00000000
  1 11 75       0.00000000
  1 11 76       0.00000000
  1 11 77       0.00000000
  1 11 78       0.00000000
  1 11 79       0.00000000
  1 11 80       0.00000000
  1 11 81       0.00000000
  1 11 82       0.00000000
  1 11 83       0.00000000
  1 11 84       0.00000000
  1 11 85       0.00000000
  1 11 86       0.00000000
  1 11 87       0.00000000
  1 11 88       0.00000000
  1 11 89       0.00000000
  1 11 90       0.00000000
  1 11 91       0.00000000
  1 11 92       0.00000000
  1 11 93       0.00000000
  1 11 94       0.00000000
  1 11 95       0.00000000
  1 11 96       0.00000000
  1 11 97       0.00000000
  1 11 98       0.00000000
  1 11 99       0.00000000
  1 11 100       0.00000000
  1 11 101       0.00000000
  1 12 51       0.00000000
  1 12 52       0.00000000
  1 12 53       0.00000000
  1 12 54       0.00000000
  1 12 55       0.00000000
  1 12 56       0.00000000
  1 12 57       0.00000000
  1 12 58       0.00000000
  1 12 59       0.00000000
  1 12 60       0.00000000
  1 12 61       0.00000000
  1 12 62       0.00000000
  1 12 63       0.00000000
  1 12 64       0.00000000
  1 12 65       0.00000000
  1 12 66       0.00000000
  1 12 67       0.00000000
  1 12 68       0.00000000
  1 12 69       0.00000000
  1 12 70       0.00000000
  1 12 71       0.00000000
  1 12 72       0.00000000
  1 12 73       0.00000000
  1 12 74       0.00000000
  1 12 75       0.00000000
  1 12 76       0.00000000
  1 12 77       0.00000000
  1 12 78       0.00000000
  1 12 79       0.00000000
  1 12 80       0.00000000
  1 12 81       0.00000000
  1 12 82       0.00000000
  1 12 83       0.00000000
  1 12 84       0.00000000
  1 12 85       0.00000000
  1 12 86       0.00000000
  1 12 87       0.00000000
  1 12 88       0.00000000
  1 12 89       0.00000000
  1 12 90       0.00000000
  1 12 91       0.00000000
  1 12 92       0.00000000
  1 12 93       0.00000000
  1 12 94       0.00000000
  1 12 95       0.00000000
  1 12 96       0.00000000
  1 12 97       0.00000000
  1 12 98       0.00000000
  1 12 99       0.00000000
  1 12 100       0.00000000
  1 12 101       0.00000000
  1 12 102       0.00000000
  1 12 103       0.00000000
  1 12 104       0.00000000
  1 12 105       0.00000000
  1 12 106       0.00000000
  1 12 107       0.00000000
  1 12 108       0.00000000
  1 12 109       0.00000000
  1 12 110       0.00000000
  1 12 111       0.00000000
  1 12 112       0.00000000
  1 12 113       0.00000000
  1 12 114       0.00000000
  1 13 50       0.00000000
  1 13 51       0.00000000
  1 13 52       0.00000000
  1 13 53       0.00000000
  1 13 54       0.00000000
  1 13 55       0.00000000
  1 13 56       0.00000000
  1 13 57       0.00000000
  1 13 58       0.00000000
  1 13 59       0.00000000
  1 13 60       0.00000000
  1 13 61       0.00000000
  1 13 62       0.00000000
  1 13 63       0.00000000
  1 13 64       0.00000000
  1 13 65       0.00000000
  1 13 66       0.00000000
  1 13 67       0.00000000
  1 13 68       0.00000000
  1 13 69       0.00000000
  1 13 70       0.00000000
  1 13 71       0.00000000
  1 13 72       0.00000000
  1 13 73       0.00000000
  1 13 74       0.00000000
  1 13 75       0.00000000
  1 13 76       0.00000000
  1 13 77       0.00000000
  1 13 78       0.00000000
  1 13 79       0.00000000
  1 13 80       0.00000000
  1 13 81       0.00000000
  1 13 82       0.00000000
  1 13 83       0.00000000
  1 13 84       0.00000000
  1 13 85       0.00000000
  1 13 86       0.00000000
  1 13 87       0.00000000
  1 13 88       0.00000000
  1 13 89       0.00000000
  1 13 90       0.00000000
  1 13 91       0.00000000
  1 13 92       0.00000000
  1 13 93       0.00000000
  1 13 94       0.00000000
  1 13 95       0.00000000
  1 13 96       0.00000000
  1 13 97       0.00000000
  1 13 98       0.00000000
  1 13 99       0.00000000
  1 13 100       0.00000000
  1 13 101       0.00000000
  1 13 102       0.00000000
  1 13 103       0.00000000
  1 13 104       0.00000000
  1 13 105       0.00000000
  1 13 106       0.00000000
  1 13 107       0.00000000
  1 13 108       0.00000000
  1 13 109       0.00000000
  1 13 110       0.00000000
  1 13 111       0.00000000
  1 13 112       0.00000000
  1 13 113       0.00000000
  1 13 114       0.00000000
  1 13 115       0.00000000
  1 13 116       0.00000000
  1 14 50       0.00000000
  1 14 51       0.00000000
  1 14 52       0.00000000
  1 14 53       0.00000000
  1 14 54       0.00000000
  1 14 55       0.00000000
  1 14 56       0.00000000
  1 14 57       0.00000000
  1 14 58       0.00000000
  1 14 59       0.00000000
  1 14 60       0.00000000
  1 14 61       0.00000000
  1 14 62       0.00000000
  1 14 63       0.00000000
  1 14 64       0.00000000
  1 14 65       0.00000000
  1 14 66       0.00000000
  1 14 67       0.00000000
  1 14 68       0.00000000
  1 14 69       0.00000000
  1 14 70       0.00000000
  1 14 71       0.00000000
  1 14 72       0.00000000
  1 14 73       0.00000000
  1 14 74       0.00000000
  1 14 75       0.00000000
  1 14 76       0.00000000
  1 14 77       0.00000000
  1 14 78       0.00000000
  1 14 79       0.00000000
  1 14 80       0.00000000
  1 14 81       0.00000000
  1 14 82       0.00000000
  1 14 83       0.00000000
  1 14 84       0.00000000
  1 14 85       0.00000000
  1 14 86       0.00000000
  1 14 87       0.00000000
  1 14 88       0.00000000
  1 14 89       0.00000000
  1 14 90       0.00000000
  1 14 91       0.00000000
  1 14 92       0.00000000
  1 14 93       0.00000000
  1 14 94       0.00000000
  1 14 95       0.00000000
  1 14 96       0.00000000
  1 14 97       0.00000000
  1 14 98       0.00000000
  1 14 99       0.00000000
  1 14 100       0.00000000
  1 14 101       0.00000000
  1 14 102       0.00000000
  1 14 103       0.00000000
  1 14 104       0.00000000
  1 14 105       0.00000000
  1 14 106       0.00000000
  1 14 107       0.00000000
  1 14 108       0.00000000
  1 14 109       0.00000000
  1 14 110       0.00000000
  1 14 111       0.00000000
  1 14 112       0.00000000
  1 14 113       0.00000000
  1 14 114       0.00000000
  1 14 115       0.00000000
  1 14 116       0.00000000
  1 15 47       0.00000000
  1 15 48       0.00000000
  1 15 49       0.00000000
  1 15 50       0.00000000
  1 15 51       0.00000000
  1 15 52       0.00000000
  1 15 53       0.00000000
  1 15 54       0.00000000
  1 15 55       0.00000000
  1 15 56       0.00000000
  1 15 57       0.00000000
  1 15 58       0.00000000
  1 15 59       0.00000000
  1 15 60       0.00000000
  1 15 61       0.00000000
  1 15 62       0.00000000
  1 15 63       0.00000000
  1 15 64       0.00000000
  1 15 65       0.00000000
  1 15 66       0.00000000
  1 15 67       0.00000000
  1 15 68       0.00000000
  1 15 69       0.00000000
  1 15 70       0.00000000
  1 15 71       0.00000000
  1 15 72       0.00000000
  1 15 73       0.00000000
  1 15 74       0.00000000
  1 15 75       0.00000000
  1 15 76       0.00000000
  1 15 77       0.00000000
  1 15 78       0.00000000
  1 15 79       0.00000000
  1 15 80       0.00000000
  1 15 81       0.00000000
  1 15 82       0.00000000
  1 15 83       0.00000000
  1 15 84       0.00000000
  1 15 85       0.00000000
  1 15 86       0.00000000
  1 15 87       0.00000000
  1 15 88       0.00000000
  1 15 89       0.00000000
  1 15 90       0.00000000
  1 15 91       0.00000000
  1 15 92       0.00000000
  1 15 93       0.00000000
  1 15 94       0.00000000
  1 15 95       0.00000000
  1 15 96       0.00000000
  1 15 97       0.00000000
  1 15 98       0.00000000
  1 15 99       0.00000000
  1 15 100       0.00000000
  1 15 101       0.00000000
  1 15 102       0.00000000
  1 15 103       0.00000000
  1 15 104       0.00000000
  1 15 105       0.00000000
  1 15 106       0.00000000
  1 15 107       0.00000000
  1 15 108       0.00000000
  1 15 109       0.00000000
  1 15 110       0.00000000
  1 15 111       0.00000000
  1 15 112       0.00000000
  1 15 113       0.00000000
  1 15 114       0.00000000
  1 15 115       0.00000000
  1 15 116       0.00000000
  1 16 47       0.00000000
  1 16 48       0.00000000
  1 16 49       0.00000000
  1 16 50       0.00000000
  1 16 51       0.00000000
  1 16 52       0.00000000
  1 16 53       0.00000000
  1 16 54       0.00000000
  1 16 55       0.00000000
  1 16 56       0.00000000
  1 16 57       0.00000000
  1 16 58       0.00000000
  1 16 59       0.00000000
  1 16 60       0.00000000
  1 16 61       0.00000000
  1 16 62       0.00000000
  1 16 63       0.00000000
  1 16 64       0.00000000
  1 16 65       0.00000000
  1 16 66       0.00000000
  1 16 67       0.00000000
  1 16 68       0.00000000
  1 16 69       0.00000000
  1 16 70       0.00000000
  1 16 71       0.00000000
  1 16 72       0.00000000
  1 16 73       0.00000000
  1 16 74       0.00000000
  1 16 75       0.00000000
  1 16 76       0.00000000
  1 16 77       0.00000000
  1 16 78       0.00000000
  1 16 79       0.00000000
  1 16 80       0.00000000
  1 16 81       0.00000000
  1 16 82       0.00000000
  1 16 83       0.00000000
  1 16 84       0.00000000
  1 16 85       0.00000000
  1 16 86       0.00000000
  1 16 87       0.00000000
  1 16 88       0.00000000
  1 16 89       0.00000000
  1 16 90       0.00000000
  1 16 91       0.00000000
  1 16 92       0.00000000
  1 16 93       0.00000000
  1 16 94       0.00000000
  1 16 95       0.00000000
  1 16 96       0.00000000
  1 16 97       0.00000000
  1 16 98       0.00000000
  1 16 99       0.00000000
  1 16 100       0.00000000
  1 16 101       0.00000000
  1 16 102       0.00000000
  1 16 103       0.00000000
  1 16 104       0.00000000
  1 16 105       0.00000000
  1 16 106       0.00000000
  1 16 107       0.00000000
  1 16 108       0.00000000
  1 16 109       0.00000000
  1 16 110       0.00000000
  1 16 111       0.00000000
  1 16 112       0.00000000
  1 16 113       0.00000000
  1 16 114       0.00000000
  1 16 115       0.00000000
  1 16 116       0.00000000
  1 16 117       0.00000000
  1 16 118       0.00000000
  1 17 47       0.00000000
  1 17 48       0.00000000
  1 17 49       0.00000000
  1 17 50       0.00000000
  1 17 51       0.00000000
  1 17 52       0.00000000
  1 17 53       0.00000000
  1 17 54       0.00000000
  1 17 55       0.00000000
  1 17 56       0.00000000
  1 17 57       0.00000000
  1 17 58       0.00000000
  1 17 59       0.00000000
  1 17 60       0.00000000
  1 17 61       0.00000000
  1 17 62       0.00000000
  1 17 63       0.00000000
  1 17 64       0.00000000
  1 17 65       0.00000000
  1 17 66       0.00000000
  1 17 67       0.00000000
  1 17 68       0.00000000
  1 17 69       0.00000000
  1 17 70       0.00000000
  1 17 71       0.00000000
  1 17 72       0.00000000
  1 17 73       0.00000000
  1 17 74       0.00000000
  1 17 75       0.00000000
  1 17 76       0.00000000
  1 17 77       0.00000000
  1 17 78       0.00000000
  1 17 79       0.00000000
  1 17 80       0.00000000
  1 17 81       0.00000000
  1 17 82       0.00000000
  1 17 83       0.00000000
  1 17 84       0.00000000
  1 17 85       0.00000000
  1 17 86       0.00000000
  1 17 87       0.00000000
  1 17 88       0.00000000
  1 17 89       0.00000000
  1 17 90       0.00000000
  1 17 91       0.00000000
  1 17 92       0.00000000
  1 17 93       0.00000000
  1 17 94       0.00000000
  1 17 95       0.00000000
  1 17 96       0.00000000
  1 17 97       0.00000000
  1 17 98       0.00000000
  1 17 99       0.00000000
  1 17 100       0.00000000
  1 17 101       0.00000000
  1 17 102       0.00000000
  1 17 103       0.00000000
  1 17 104       0.00000000
  1 17 105       0.00000000
  1 17 106       0.00000000
  1 17 107       0.00000000
  1 17 108       0.00000000
  1 17 109       0.00000000
  1 17 110       0.00000000
  1 17 111       0.00000000
  1 17 112       0.00000000
  1 17 113       0.00000000
  1 17 114       0.00000000
  1 17 115       0.00000000
  1 17 116       0.00000000
  1 17 117       0.00000000
  1 17 118       0.00000000
  1 17 119       0.00000000
  1 17 120       0.00000000
  1 17 121       0.00000000
  1 17 122       0.00000000
  1 17 123       0.00000000
  1 17 124       0.00000000
  1 17 125       0.00000000
  1 17 126       0.00000000
  1 17 127       0.00000000
  1 17 128       0.00000000
  1 17 129       0.00000000
  1 17 130       0.00000000
  1 17 131       0.00000000
  1 17 132       0.00000000
  1 18 47       0.00000000
  1 18 48       0.00000000
  1 18 49       0.00000000
  1 18 50       0.00000000
  1 18 51       0.00000000
  1 18 52       0.00000000
  1 18 53       0.00000000
  1 18 54       0.00000000
  1 18 55       0.00000000
  1 18 56       0.00000000
  1 18 57       0.00000000
  1 18 58       0.00000000
  1 18 59       0.00000000
  1 18 60       0.00000000
  1 18 61       0.00000000
  1 18 62       0.00000000
  1 18 63       0.00000000
  1 18 64       0.00000000
  1 18 65       0.00000000
  1 18 66       0.00000000
  1 18 67       0.00000000
  1 18 68       0.00000000
  1 18 69       0.00000000
  1 18 70       0.00000000
  1 18 71       0.00000000
  1 18 72       0.00000000
  1 18 73       0.00000000
  1 18 74       0.00000000
  1 18 75       0.00000000
  1 18 76       0.00000000
  1 18 77       0.00000000
  1 18 78       0.00000000
  1 18 79       0.00000000
  1 18 80       0.00000000
  1 18 81       0.00000000
  1 18 82       0.00000000
  1 18 83       0.00000000
  1 18 84       0.00000000
  1 18 85       0.00000000
  1 18 86       0.00000000
  1 18 87       0.00000000
  1 18 88       0.00000000
  1 18 89       0.00000000
  1 18 90       0.00000000
  1 18 91       0.00000000
  1 18 92       0.00000000
  1 18 93       0.00000000
  1 18 94       0.00000000
  1 18 95       0.00000000
  1 18 96       0.00000000
  1 18 97       0.00000000
  1 18 98       0.00000000
  1 18 99       0.00000000
  1 18 100       0.00000000
  1 18 101       0.00000000
  1 18 102       0.00000000
  1 18 103       0.00000000
  1 18 104       0.00000000
  1 18 105       0.00000000
  1 18 106       0.00000000
  1 18 107       0.00000000
  1 18 108       0.00000000
  1 18 109       0.00000000
  1 18 110       0.00000000
  1 18 111       0.00000000
  1 18 112       0.00000000
  1 18 113       0.00000000
  1 18 114       0.00000000
  1 18 115       0.00000000
  1 18 116       0.00000000
  1 18 117       0.00000000
  1 18 118       0.00000000
  1 18 119       0.00000000
  1 18 120       0.00000000
  1 18 121       0.00000000
  1 18 122       0.00000000
  1 18 123       0.00000000
  1 18 124       0.00000000
  1 18 125       0.00000000
  1 18 126       0.00000000
  1 18 127       0.00000000
  1 18 128       0.00000000
  1 18 129       0.00000000
  1 18 130       0.00000000
  1 18 131       0.00000000
  1 18 132       0.00000000
  1 18 133       0.00000000
  1 18 134       0.00000000
  1 18 135       0.00000000
  1 18 136       0.00000000
  1 18 137       0.00000000
  1 18 138       0.00000000
  1 18 139       0.00000000
  1 18 140       0.00000000
  1 18 141       0.00000000
  1 18 142       0.00000000
  1 18 143       0.00000000
  1 18 144       0.00000000
  1 18 145       0.00000000
  1 18 146       0.00000000
  1 18 147       0.00000000
  1 19 47       0.00000000
  1 19 48       0.00000000
  1 19 49       0.00000000
  1 19 50       0.00000000
  1 19 51       0.00000000
  1 19 52       0.00000000
  1 19 53       0.00000000
  1 19 54       0.00000000
  1 19 55       0.00000000
  1 19 56       0.00000000
  1 19 57       0.00000000
  1 19 58       0.00000000
  1 19 59       0.00000000
  1 19 60       0.00000000
  1 19 61       0.00000000
  1 19 62       0.00000000
  1 19 63       0.00000000
  1 19 64       0.00000000
  1 19 65       0.00000000
  1 19 66       0.00000000
  1 19 67       0.00000000
  1 19 68       0.00000000
  1 19 69       0.00000000
  1 19 70       0.00000000
  1 19 71       0.00000000
  1 19 72       0.00000000
  1 19 73       0.00000000
  1 19 74       0.00000000
  1 19 75       0.00000000
  1 19 76       0.00000000
  1 19 77       0.00000000
  1 19 78       0.00000000
  1 19 79       0.00000000
  1 19 80       0.00000000
  1 19 81       0.00000000
  1 19 82       0.00000000
  1 19 83       0.00000000
  1 19 84       0.00000000
  1 19 85       0.00000000
  1 19 86       0.00000000
  1 19 87       0.00000000
  1 19 88       0.00000000
  1 19 89       0.00000000
  1 19 90       0.00000000
  1 19 91       0.00000000
  1 19 92       0.00000000
  1 19 93       0.00000000
  1 19 94       0.00000000
  1 19 95       0.00000000
  1 19 96       0.00000000
  1 19 97       0.00000000
  1 19 98       0.00000000
  1 19 99       0.00000000
  1 19 100       0.00000000
  1 19 101       0.00000000
  1 19 102       0.00000000
  1 19 103       0.00000000
  1 19 104       0.00000000
  1 19 105       0.00000000
  1 19 106       0.00000000
  1 19 107       0.00000000
  1 19 108       0.00000000
  1 19 109       0.00000000
  1 19 110       0.00000000
  1 19 111       0.00000000
  1 19 112       0.00000000
  1 19 113       0.00000000
  1 19 114       0.00000000
  1 19 115       0.00000000
  1 19 116       0.00000000
  1 19 117       0.00000000
  1 19 118       0.00000000
  1 19 119       0.00000000
  1 19 120       0.00000000
  1 19 121       0.00000000
  1 19 122       0.00000000
  1 19 123       0.00000000
  1 19 124       0.00000000
  1 19 125       0.00000000
  1 19 126       0.00000000
  1 19 127       0.00000000
  1 19 128       0.00000000
  1 19 129       0.00000000
  1 19 130       0.00000000
  1 19 131       0.00000000
  1 19 132       0.00000000
  1 19 133       0.00000000
  1 19 134       0.00000000
  1 19 135       0.00000000
  1 19 136       0.00000000
  1 19 137       0.00000000
  1 19 138       0.00000000
  1 19 139       0.00000000
  1 19 140       0.00000000
  1 19 141       0.00000000
  1 19 142       0.00000000
  1 19 143       0.00000000
  1 19 144       0.00000000
  1 19 145       0.00000000
  1 19 146       0.00000000
  1 19 147       0.00000000
  1 19 148       0.00000000
  1 19 149       0.00000000
  1 19 150       0.00000000
  1 19 151       0.00000000
  1 19 152       0.00000000
  1 19 153       0.00000000
  1 19 154       0.00000000
  1 19 155       0.00000000
  1 19 156       0.00000000
  1 19 157       0.00000000
  1 19 158       0.00000000
  1 19 159       0.00000000
  1 19 160       0.00000000
  1 19 161       0.00000000
  1 19 162       0.00000000
  1 19 163       0.00000000
  1 19 164       0.00000000
  1 20 47       0.00000000
  1 20 48       0.00000000
  1 20 49       0.00000000
  1 20 50       0.00000000
  1 20 51       0.00000000
  1 20 52       0.00000000
  1 20 53       0.00000000
  1 20 54       0.00000000
  1 20 55       0.00000000
  1 20 56       0.00000000
  1 20 57       0.00000000
  1 20 58       0.00000000
  1 20 59       0.00000000
  1 20 60       0.00000000
  1 20 61       0.00000000
  1 20 62       0.00000000
  1 20 63       0.00000000
  1 20 64       0.00000000
  1 20 65       0.00000000
  1 20 66       0.00000000
  1 20 67       0.00000000
  1 20 68       0.00000000
  1 20 69       0.00000000
  1 20 70       0.00000000
  1 20 71       0.00000000
  1 20 72       0.00000000
  1 20 73       0.00000000
  1 20 74       0.00000000
  1 20 75       0.00000000
  1 20 76       0.00000000
  1 20 77       0.00000000
  1 20 78       0.00000000
  1 20 79       0.00000000
  1 20 80       0.00000000
  1 20 81       0.00000000
  1 20 82       0.00000000
  1 20 83       0.00000000
  1 20 84       0.00000000
  1 20 85       0.00000000
  1 20 86       0.00000000
  1 20 87       0.00000000
  1 20 88       0.00000000
  1 20 89       0.00000000
  1 20 90       0.00000000
  1 20 91       0.00000000
  1 20 92       0.00000000
  1 20 93       0.00000000
  1 20 94       0.00000000
  1 20 95       0.00000000
  1 20 96       0.00000000
  1 20 97       0.00000000
  1 20 98       0.00000000
  1 20 99       0.00000000
  1 20 100       0.00000000
  1 20 101       0.00000000
  1 20 102       0.00000000
  1 20 103       0.00000000
  1 20 104       0.00000000
  1 20 105       0.00000000
  1 20 106       0.00000000
  1 20 107       0.00000000
  1 20 108       0.00000000
  1 20 109       0.00000000
  1 20 110       0.00000000
  1 20 111       0.00000000
  1 20 112       0.00000000
  1 20 113       0.00000000
  1 20 114       0.00000000
  1 20 115       0.00000000
  1 20 116       0.00000000
  1 20 117       0.00000000
  1 20 118       0.00000000
  1 20 119       0.00000000
  1 20 120       0.00000000
  1 20 121       0.00000000
  1 20 122       0.00000000
  1 20 123       0.00000000
  1 20 124       0.00000000
  1 20 125       0.00000000
  1 20 126       0.00000000
  1 20 127       0.00000000
  1 20 128       0.00000000
  1 20 129       0.00000000
  1 20 130       0.00000000
  1 20 131       0.00000000
  1 20 132       0.00000000
  1 20 133       0.00000000
  1 20 134       0.00000000
  1 20 135       0.00000000
  1 20 136       0.00000000
  1 20 137       0.00000000
  1 20 138       0.00000000
  1 20 139       0.00000000
  1 20 140       0.00000000
  1 20 141       0.00000000
  1 20 142       0.00000000
  1 20 143       0.00000000
  1 20 144       0.00000000
  1 20 145       0.00000000
  1 20 146       0.00000000
  1 20 147       0.00000000
  1 20 148       0.00000000
  1 20 149       0.00000000
  1 20 150       0.00000000
  1 20 151       0.00000000
  1 20 152       0.00000000
  1 20 153       0.00000000
  1 20 154       0.00000000
  1 20 155       0.00000000
  1 20 156       0.00000000
  1 20 157       0.00000000
  1 20 158       0.00000000
  1 20 159       0.00000000
  1 20 160       0.00000000
  1 20 161       0.00000000
  1 20 162       0.00000000
  1 20 163       0.00000000
  1 20 164       0.00000000
  1 20 165       0.00000000
  1 20 166       0.00000000
  1 20 167       0.00000000
  1 20 168       0.00000000
  1 20 169       0.00000000
  1 20 170       0.00000000
  1 20 171       0.00000000
  1 20 172       0.00000000
  1 21 47       0.00000000
  1 21 48       0.00000000
  1 21 49       0.00000000
  1 21 50       0.00000000
  1 21 51       0.00000000
  1 21 52       0.00000000
  1 21 53       0.00000000
  1 21 54       0.00000000
  1 21 55       0.00000000
  1 21 56       0.00000000
  1 21 57       0.00000000
  1 21 58       0.00000000
  1 21 59       0.00000000
  1 21 60       0.00000000
  1 21 61       0.00000000
  1 21 62       0.00000000
  1 21 63       0.00000000
  1 21 64       0.00000000
  1 21 65       0.00000000
  1 21 66       0.00000000
  1 21 67       0.00000000
  1 21 68       0.00000000
  1 21 69       0.00000000
  1 21 70       0.00000000
  1 21 71       0.00000000
  1 21 72       0.00000000
  1 21 73       0.00000000
  1 21 74       0.00000000
  1 21 75       0.00000000
  1 21 76       0.00000000
  1 21 77       0.00000000
  1 21 78       0.00000000
  1 21 79       0.00000000
  1 21 80       0.00000000
  1 21 81       0.00000000
  1 21 82       0.00000000
  1 21 83       0.00000000
  1 21 84       0.00000000
  1 21 85       0.00000000
  1 21 86       0.00000000
  1 21 87       0.00000000
  1 21 88       0.00000000
  1 21 89       0.00000000
  1 21 90       0.00000000
  1 21 91       0.00000000
  1 21 92       0.00000000
  1 21 93       0.00000000
  1 21 94       0.00000000
  1 21 95       0.00000000
  1 21 96       0.00000000
  1 21 97       0.00000000
  1 21 98       0.00000000
  1 21 99       0.00000000
  1 21 100       0.00000000
  1 21 101       0.00000000
  1 21 102       0.00000000
  1 21 103       0.00000000
  1 21 104       0.00000000
  1 21 105       0.00000000
  1 21 106       0.00000000
  1 21 107       0.00000000
  1 21 108       0.00000000
  1 21 109       0.00000000
  1 21 110       0.00000000
  1 21 111       0.00000000
  1 21 112       0.00000000
  1 21 113       0.00000000
  1 21 114       0.00000000
  1 21 115       0.00000000
  1 21 116       0.00000000
  1 21 117       0.00000000
  1 21 118       0.00000000
  1 21 119       0.00000000
  1 21 120       0.00000000
  1 21 121       0.00000000
  1 21 122       0.00000000
  1 21 123       0.00000000
  1 21 124       0.00000000
  1 21 125       0.00000000
  1 21 126       0.00000000
  1 21 127       0.00000000
  1 21 128       0.00000000
  1 21 129       0.00000000
  1 21 130       0.00000000
  1 21 131       0.00000000
  1 21 132       0.00000000
  1 21 133       0.00000000
  1 21 134       0.00000000
  1 21 135       0.00000000
  1 21 136       0.00000000
  1 21 137       0.00000000
  1 21 138       0.00000000
  1 21 139       0.00000000
  1 21 140       0.00000000
  1 21 141       0.00000000
  1 21 142       0.00000000
  1 21 143       0.00000000
  1 21 144       0.00000000
  1 21 145       0.00000000
  1 21 146       0.00000000
  1 21 147       0.00000000
  1 21 148       0.00000000
  1 21 149       0.00000000
  1 21 150       0.00000000
  1 21 151       0.00000000
  1 21 152       0.00000000
  1 21 153       0.00000000
  1 21 154       0.00000000
  1 21 155       0.00000000
  1 21 156       0.00000000
  1 21 157       0.00000000
  1 21 158       0.00000000
  1 21 159       0.00000000
  1 21 160       0.00000000
  1 21 161       0.00000000
  1 21 162       0.00000000
  1 21 163       0.00000000
  1 21 164       0.00000000
  1 21 165       0.00000000
  1 21 166       0.00000000
  1 21 167       0.00000000
  1 21 168       0.00000000
  1 21 169       0.00000000
  1 21 170       0.00000000
  1 21 171       0.00000000
  1 21 172       0.00000000
  1 22 47       0.00000000
  1 22 48       0.00000000
  1 22 49       0.00000000
  1 22 50       0.00000000
  1 22 51       0.00000000
  1 22 52       0.00000000
  1 22 53       0.00000000