# File generated by Flopy version 3.3.4 on 10/31/2022 at 11:56:40.
BEGIN options
  HEAD  FILEOUT  TRANSIENT.hds
END options

BEGIN period  1
  SAVE  HEAD  FREQUENCY  10
END period  1

