# File generated by Flopy version 3.3.4 on 10/31/2022 at 11:56:26.
BEGIN options
END options

BEGIN dimensions
  NPER  5
END dimensions

BEGIN perioddata
       1.00000000  1       1.00000000
       1.00000000  1       1.00000000
       1.00000000  1       1.00000000
       1.00000000  1       1.00000000
       1.00000000  1       1.00000000
END perioddata

