# File generated by Flopy version 3.3.4 on 10/31/2022 at 11:00:05.
BEGIN options
  COMPLEXITY  complex
END options

BEGIN linear
  LINEAR_ACCELERATION  bicgstab
END linear

